LAMMPS (23 Jun 2022 - Update 1)

variable        runtime equal 1000000
variable		subsample_rate equal 1000

variable		outputfile_created string '3_created.data'
variable		outputfile_relaxed string '5_relaxed.data'
variable		outputfile_selfasb string '6_a_self_assemble.lammpstrj'
variable		outputfile_trajlin string '6_b_trajlin.data'
variable		outputfile_assembled string '7_assembled.data'

units           lj
atom_style      full
dimension       3
boundary        p p p
timestep        0.005

read_data       3_created.data
Reading data file ...
  orthogonal box = (0 0 0) to (35 35 35)
  reading atoms ...
  100 atoms
  reading velocities ...
  100 velocities
  scanning bonds ...
  reading bonds ...
  99 bonds
Finding 1-2 1-3 1-4 neighbors ...
     2 = max # of 1-2 neighbors
     2 = max # of 1-3 neighbors
     4 = max # of 1-4 neighbors
     6 = max # of special neighbors

bond_style      fene
bond_coeff      * 30.0 1.5 1.0 1.0
special_bonds   fene
Finding 1-2 1-3 1-4 neighbors ...
     2 = max # of 1-2 neighbors
     6 = max # of special neighbors

variable        Temp equal 1.0
variable        velSeed equal 926458

velocity        all create 1 926458

### Output
thermo_style    custom step temp density press etotal pe ke epair spcpu
thermo          1000

###########################################################################
# Soft relaxation (to remove overlaps of particles)
######################################################################

pair_style      soft 1.0
pair_coeff      * * 0.0
variable        prefactor equal ramp(0,300)
fix             rampSoft all adapt 1 pair soft a * * v_prefactor

minimize        0.0 1.0e-8 1000 100000
Generated 0 of 6 mixed pair_coeff terms from geometric mixing rule
  update every 1 steps, delay 0 steps, check yes
Step          Temp         Density         Press          TotEng         PotEng         KinEng         E_pair         S/CPU
0   1              0.0023323615  -0.0039617958   21.524174      20.039174      1.485          0              0
Loop time of 0.00514765 on 1 procs for 362 steps with 100 atoms

Minimization stats:
  Stopping criterion = force tolerance
  Energy initial, next-to-last, final =
  Force two-norm initial, final = 11.878422 7.9509778e-09
  Force max component initial, final = 6.6117807 1.3572772e-09
  Final line search alpha, max atom move = 1 1.3572772e-09
  Iterations, force evaluations = 362 738

fix             nvtSoft all nvt temp 1 1 0.5
run             100000
Generated 0 of 6 mixed pair_coeff terms from geometric mixing rule
Step          Temp         Density         Press          TotEng         PotEng         KinEng         E_pair         S/CPU
362   1              0.0023323615   0.0023090379   21.485548      20.000548      1.485          0              0
Averages over the last 51 of 102 rows, steps 51000 to 100362:
Temp Density Press TotEng PotEng KinEng E_pair
1.0162 0.00233236 -0.000448787 22.05 20.541 1.50906 0.00735162
Loop time of 1.31992 on 1 procs for 100000 steps with 100 atoms

unfix           nvtSoft
unfix           rampSoft
reset_timestep  0

write_data      5_relaxed.data
System init for write_data ...
Generated 0 of 6 mixed pair_coeff terms from geometric mixing rule

###########################################################################
# Full LJ with Coulomb
######################################################################

# Cutoffs and parameters:
# - Values: Marcel Verkade's Bachelor Thesis
# - Mapping to atom groups: Patrick Onck's paper
# - 1: aliphatic, 2: aromatic, 3: anion, 4: cation
# pair_style	lj/cut/coul/cut <lj_cut_global> <coul_cut_global>
# pair_coeff	<type_1>  <type_2>  <eps>  <sigma>  <r_cut_lj>  <r_cut_coul>

# Problem: Onck's model is much more complex, and Marcel has no sigma reported
# Using sigma=1 randomly

variable		glob_ljeps equal 1.0
variable		glob_ljsig 	equal 1.0
variable		glob_coulcut equal 10.0
variable		att_ljcut equal 2.50
variable		rep_ljcut equal 1.12

pair_style		lj/cut/coul/cut 						2.5 	10
pair_coeff		1 1 	1 	1	2.5 	10
pair_coeff		1 2 	1 	1	2.5 	10
pair_coeff		1 3 	1 	1	1.12 	10
pair_coeff		1 4 	1 	1	1.12 	10
pair_coeff		2 2 	1 	1	2.5 	10
pair_coeff		2 3 	1 	1	1.12 	10
pair_coeff		2 4 	1 	1	2.5 	10
pair_coeff		3 3 	1 	1	1.12 	10
pair_coeff		3 4 	1 	1	2.5 	10
pair_coeff		4 4 	1 	1	1.12 	10

fix             noDriftRot 	all momentum 10 linear 1 1 1 angular
fix             nvt1 		all nvt temp 1 1 0.5

dump            lindump 	all custom 1000 	6_b_trajlin.data id type xu yu zu vx vy vz

run             1000000
Generated 0 of 6 mixed pair_coeff terms from geometric mixing rule
  update every 1 steps, delay 10 steps, check yes
Step          Temp         Density         Press          TotEng         PotEng         KinEng         E_pair         S/CPU
0   1.1904942      0.0023323615  -0.0017268411   21.847774      20.07989       1.7678839     -0.4684444      0
Averages over the last 501 of 1001 rows, steps 500000 to 1000000:
Temp Density Press TotEng PotEng KinEng E_pair
0.996297 0.00233236 -1.57376e-08 20.0147 18.5352 1.4795 -1.98658
Loop time of 55.1815 on 1 procs for 1000000 steps with 100 atoms

write_data      7_assembled.data nofix nocoeff
System init for write_data ...
Generated 0 of 6 mixed pair_coeff terms from geometric mixing rule
