LAMMPS (23 Jun 2022 - Update 1)

units           lj
atom_style      full
dimension       3
boundary        p p p
timestep        0.005

read_data       packed.data
Reading data file ...
  orthogonal box = (0 0 0) to (35 35 35)
  reading atoms ...
  20 atoms
  reading velocities ...
  20 velocities
  scanning bonds ...
  reading bonds ...
  19 bonds
Finding 1-2 1-3 1-4 neighbors ...
     2 = max # of 1-2 neighbors
     2 = max # of 1-3 neighbors
     4 = max # of 1-4 neighbors
     6 = max # of special neighbors

bond_style      fene
bond_coeff      * 30.0 1.5 1.0 1.0
special_bonds   fene
Finding 1-2 1-3 1-4 neighbors ...
     2 = max # of 1-2 neighbors
     6 = max # of special neighbors

variable        runtime equal 1000000
variable        Temp equal 1.0
variable        velSeed equal 926458

velocity        all create 1 926458

### Output
thermo_style    custom step temp density press etotal pe ke epair spcpu
thermo          1000

###########################################################################
# Soft relaxation (to remove overlaps of particles)
######################################################################

pair_style      soft 1.0
pair_coeff      * * 0.0
variable        prefactor equal ramp(0,300)
fix             rampSoft all adapt 1 pair soft a * * v_prefactor

minimize        0.0 1.0e-8 1000 100000
Generated 0 of 6 mixed pair_coeff terms from geometric mixing rule
  update every 1 steps, delay 0 steps, check yes
Step          Temp         Density         Press          TotEng         PotEng         KinEng         E_pair         S/CPU
0   1              0.0004664723  -0.00076034465  20.654511      19.229511      1.425          0              0
Loop time of 0.000561213 on 1 procs for 78 steps with 20 atoms

Minimization stats:
  Stopping criterion = force tolerance
  Energy initial, next-to-last, final =
  Force two-norm initial, final = 11.878422 5.2971227e-09
  Force max component initial, final = 6.6117807 1.7379241e-09
  Final line search alpha, max atom move = 1 1.7379241e-09
  Iterations, force evaluations = 78 156

fix             nvtSoft all nvt temp 1 1 0.5
run             100000
Generated 0 of 6 mixed pair_coeff terms from geometric mixing rule
Step          Temp         Density         Press          TotEng         PotEng         KinEng         E_pair         S/CPU
78   1              0.0004664723   0.00044314869  20.617445      19.192445      1.425          0              0
Averages over the last 51 of 102 rows, steps 51000 to 100078:
Temp Density Press TotEng PotEng KinEng E_pair
1.00412 0.000466472 -9.07653e-05 21.173 19.7421 1.43088 0.00964896
Loop time of 0.834953 on 1 procs for 100000 steps with 20 atoms

unfix           nvtSoft
unfix           rampSoft
reset_timestep  0

write_data      relaxed.data
System init for write_data ...
Generated 0 of 6 mixed pair_coeff terms from geometric mixing rule

###########################################################################
# Full LJ with Coulomb
######################################################################

# Cutoffs and parameters:
# - Values: Marcel Verkade's Bachelor Thesis
# - Mapping to atom groups: Patrick Onck's paper
# - 1: aliphatic, 2: aromatic, 3: anion, 4: cation
# pair_style	lj/cut/coul/cut <lj_cut_global> <coul_cut_global>
# pair_coeff	<type_1>  <type_2>  <eps>  <sigma>  <r_cut_lj>  <r_cut_coul>

# Problem: Onck's model is much more complex, and Marcel has no sigma reported
# Using sigma=5 randomly (seems to be ~0.5 nm which is kinda what Onck has(?))

pair_style		lj/cut/coul/cut 2.50 10.0
pair_coeff		1 1 	1.0 	5.0		2.50 	10.0
pair_coeff		1 2 	1.0 	5.0		2.50 	10.0
pair_coeff		1 3 	1.0 	5.0		1.12 	10.0
pair_coeff		1 4 	1.0 	5.0		1.12 	10.0
pair_coeff		2 2 	1.0 	5.0		2.50 	10.0
pair_coeff		2 3 	1.0 	5.0		1.12 	10.0
pair_coeff		2 4 	1.0 	5.0		2.50 	10.0
pair_coeff		3 3 	1.0 	5.0		1.12 	10.0
pair_coeff		3 4 	1.0 	5.0		2.50 	10.0
pair_coeff		4 4 	1.0 	5.0		1.12 	10.0

fix             noDrift all momentum 10 linear 1 1 1
fix             nvt1 all nvt temp 1 1 0.5
dump            1 all custom 1000 self_assemble.lammpstrj id type xu yu zu vx vy vz

run             1000000
Generated 0 of 6 mixed pair_coeff terms from geometric mixing rule
  update every 1 steps, delay 10 steps, check yes
Step          Temp         Density         Press          TotEng         PotEng         KinEng         E_pair         S/CPU
0   1.1365479      0.0004664723   41156.442      22054088       22054087       1.6195807      22054067       0
ERROR on proc 0: Bad FENE bond (src/MOLECULE/bond_fene.cpp:84)
